/*--------------------------------*- C++ -*----------------------------------*\
| =========                 |                                                 |
| \\      /  F ield         | OpenFOAM: The Open Source CFD Toolbox           |
|  \\    /   O peration     | Version:  2.2.2                                 |
|   \\  /    A nd           | Web:      www.OpenFOAM.org                      |
|    \\/     M anipulation  |                                                 |
\*---------------------------------------------------------------------------*/
FoamFile
{
    version     2.0;
    format      ascii;
    class       dictionary;
    object      fvSchemes;
}
// * * * * * * * * * * * * * * * * * * * * * * * * * * * * * * * * * * * * * //

ddtSchemes
{
    default steadyState;
}

gradSchemes
{
 default         leastSquares;//cellMDLimited Gauss linear 0.5;
}

divSchemes
{
    default         none;
    div(phi,U)      bounded Gauss upwind default;
    div(phi,K)      bounded Gauss upwind default;
    div(phi,h)      bounded Gauss upwind default;

    div(phi,k)      bounded Gauss upwind default;
    div(phi,epsilon) bounded Gauss upwind default;

    div(phi,R)      bounded Gauss upwind default;
    div(R)          Gauss linear;
    div((muEff*dev2(T(grad(U))))) Gauss linear;
}

laplacianSchemes
{
    default         Gauss linear limited 1.0;
    // laplacian(muEff,U) Gauss linear uncorrected;
    // laplacian(Dp,p_rgh) Gauss linear uncorrected;
    // laplacian(alphaEff,h) Gauss linear uncorrected;
    // laplacian(DkEff,k) Gauss linear uncorrected;
    // laplacian(DepsilonEff,epsilon) Gauss linear uncorrected;
    // laplacian(DREff,R) Gauss linear uncorrected;
}

interpolationSchemes
{
    default         linear;
}

snGradSchemes
{
    default         limited 1.0;
}

fluxRequired
{
    default         no;
    p_rgh;
}

// ************************************************************************* //
