/*--------------------------------*- C++ -*----------------------------------*\
| =========                 |                                                 |
| \\      /  F ield         | OpenFOAM: The Open Source CFD Toolbox           |
|  \\    /   O peration     | Version:  2.2.2                                 |
|   \\  /    A nd           | Web:      www.OpenFOAM.org                      |
|    \\/     M anipulation  |                                                 |
\*---------------------------------------------------------------------------*/
FoamFile
{
    version     2.0;
    format      ascii;
    class       dictionary;
    object      fvSolution;
}
// * * * * * * * * * * * * * * * * * * * * * * * * * * * * * * * * * * * * * //

solvers
{
    h
    {
        solver           PCG;
        preconditioner   DIC;
        tolerance        1e-08;
        relTol           0.01;
	minIter          1;
    }
}

SIMPLE
{
    nNonOrthogonalCorrectors 1;
    residualControl
    {
        h                1e-05;
    }
}

relaxationFactors
{
    fields
    {
    }
    equations
    {
        h               1;
    }
}

// ************************************************************************* //
